ECE6613PD/PFproblem4.m
Bus.con = [ ... 
  1 138  1  0  4  1;
  2 138  1  0  4  1;
  3 138  1  0  4  1;
  4  20  1  0  4  1;
 ];

Line.con = [ ... 
  1  2  100  138  60  0  0     0.005  0.05   0  0  0  0  0  0  1;
  2  3  100  138  60  0  0     0.005  0.05   0  0  0  0  0  0  1;
  1  3  100  138  60  0  0     0.005  0.05   0  0  0  0  0  0  1;
  3  4  100  138  60  0  6.9   0.00   0.05   0  1  0  0  0  0  1;
 ];


SW.con = [ ... 
  2  100  138  1.0   0  0.5  -0.5  1.2  0.8  1.21  1  1  1;
 ];

PV.con = [ ... 
  1  100  138  0.6  1.0  1.0  -1.0  1.2  0.8  1  1;
 ];

PQ.con = [ ... 
  3  100  138  0.0  0.0     1.05  0.95  0  1 ;
  4  100   20  1.8  0.8719  1.05  0.95  0  1 ;
 ];



Bus.names = {... 
  'Bus 01'; 'Bus 02'; 'Bus 03';'Bus 04'};

